29
XYZ file generated by Avogadro.
C     -4.07013    1.98094   -0.00000
C     -4.09914    0.23296   -0.00001
H     -4.44906    2.12969    0.98953
H     -2.21447    3.88125   -2.01709
C     -2.39572    3.26700   -0.79551
C     -4.36880    0.11914   -1.02920
C     -0.06054   -0.16902   -0.87350
N     -2.52251   -1.00464    0.56892
C     -0.62528    2.16484    0.00000
C     -0.61638    0.10116   -0.00003
H     -0.29012    2.38856   -0.99122
H     -0.02747    2.46585    0.83481
H     -2.45363    4.11993    0.01284
C     -0.27988   -0.06268    1.00238
C     -4.66781   -0.00760    0.87386
H     -4.55673    2.25085   -0.91393
O     -2.49706   -2.37093    1.17170
H      0.69240    0.36636    1.12683
H     -0.96237    0.39582    1.68713
H     -0.23318   -1.11406    1.19558
H      0.79534    0.46695   -0.96248
H      0.25850   -1.18713   -0.79249
H     -0.67962   -0.05704   -1.73901
H     -4.09845    0.23294    1.74729
H     -5.57700    0.55655    0.87423
H     -4.89662   -1.05285    0.87394
H     -3.56496    0.45908   -1.64822
H     -4.56536   -0.91243   -1.23442
H     -5.24574    0.69696   -1.23414
