14
xyz prepared by easyxtb
C        -4.80007839202881    -0.83922308683395    -0.00000317573426
C        -2.83840012550354     0.60075253248215    -0.00000952720984
O        -2.88340234756470     2.61894536018372     0.00000635146853
O        -0.88629037141800    -0.67743813991547    -0.00004446043749
C        -4.75646924972534    -2.71539425849915    -0.00001022976721
C        -8.56875896453857    -2.88670134544373     0.00001022975175
C        -6.58346462249756     0.35228160023689     0.00000340992005
H        -9.51105245323918    -0.25967201669668    -0.00000674950535
H        -3.82006018046827    -3.23311828429459    -0.00002958783411
H        -6.77227986118518    -4.99098270238632     0.00004614763422
C        -8.58346939086914    -0.79304784536362     0.00000000000000
H        -6.54659584897979     1.42164627412761     0.00000803297411
C        -6.77941513061523    -3.92100644111633     0.00002386940469
H        -9.49365933332754    -3.42471567616188     0.00000838419306
